experimentos/experimento_10_execucoes_Kara_PVWatts/execucao_09/dados/inputs/carga_base/Loads_FeederC.dss
! Arquivo Load - Feeder C
New Load.Load_3002 phases=3 conn=wye bus1=T_bus3002_L.1.2.3.0 kV=0.208 kW=36.204 yearly=Load_Bus_3002 model=1
New Load.Load_3004 phases=3 conn=wye bus1=T_bus3004_L.1.2.3.0 kV=0.208 kW=13.144 yearly=Load_Bus_3004 model=1
New Load.Load_3006 phases=3 conn=wye bus1=T_bus3006_L.1.2.3.0 kV=0.208 kW=28.502 yearly=Load_Bus_3006 model=1
New Load.Load_3007 phases=3 conn=wye bus1=T_bus3007_L.1.2.3.0 kV=0.208 kW=43.500 yearly=Load_Bus_3007 model=1
New Load.Load_3009 phases=2 conn=wye bus1=T_bus3009_L.1.2 kV=0.208 kW=26.993 yearly=Load_Bus_3009 model=1
New Load.Load_3010 phases=2 conn=wye bus1=T_bus3010_L.1.2 kV=0.208 kW=21.071 yearly=Load_Bus_3010 model=1
New Load.Load_3011 phases=2 conn=wye bus1=T_bus3011_L.1.2 kV=0.208 kW=27.459 yearly=Load_Bus_3011 model=1
New Load.Load_3012 phases=2 conn=wye bus1=T_bus3012_L.1.2 kV=0.208 kW=30.041 yearly=Load_Bus_3012 model=1
New Load.Load_3013 phases=2 conn=wye bus1=T_bus3013_L.1.2 kV=0.208 kW=16.702 yearly=Load_Bus_3013 model=1
New Load.Load_3014 phases=2 conn=wye bus1=T_bus3014_L.1.2 kV=0.208 kW=24.149 yearly=Load_Bus_3014 model=1
New Load.Load_3016 phases=2 conn=wye bus1=T_bus3016_L.1.2 kV=0.208 kW=25.038 yearly=Load_Bus_3016 model=1
New Load.Load_3017 phases=2 conn=wye bus1=T_bus3017_L.1.2 kV=0.208 kW=40.198 yearly=Load_Bus_3017 model=1
New Load.Load_3018 phases=2 conn=wye bus1=T_bus3018_L.1.2 kV=0.208 kW=28.056 yearly=Load_Bus_3018 model=1
New Load.Load_3019 phases=2 conn=wye bus1=T_bus3019_L.1.2 kV=0.208 kW=26.066 yearly=Load_Bus_3019 model=1
New Load.Load_3020 phases=2 conn=wye bus1=T_bus3020_L.1.2 kV=0.208 kW=37.355 yearly=Load_Bus_3020 model=1
New Load.Load_3021 phases=2 conn=wye bus1=T_bus3021_L.1.2 kV=0.208 kW=24.820 yearly=Load_Bus_3021 model=1
New Load.Load_3023 phases=2 conn=wye bus1=T_bus3023_L.1.2 kV=0.208 kW=32.996 yearly=Load_Bus_3023 model=1
New Load.Load_3024 phases=2 conn=wye bus1=T_bus3024_L.1.2 kV=0.208 kW=31.125 yearly=Load_Bus_3024 model=1
New Load.Load_3025 phases=2 conn=wye bus1=T_bus3025_L.1.2 kV=0.208 kW=31.599 yearly=Load_Bus_3025 model=1
New Load.Load_3026 phases=2 conn=wye bus1=T_bus3026_L.1.2 kV=0.208 kW=27.653 yearly=Load_Bus_3026 model=1
New Load.Load_3027 phases=2 conn=wye bus1=T_bus3027_L.1.2 kV=0.208 kW=33.834 yearly=Load_Bus_3027 model=1
New Load.Load_3028 phases=2 conn=wye bus1=T_bus3028_L.1.2 kV=0.208 kW=41.873 yearly=Load_Bus_3028 model=1
New Load.Load_3029 phases=2 conn=wye bus1=T_bus3029_L.1.2 kV=0.208 kW=19.598 yearly=Load_Bus_3029 model=1
New Load.Load_3031 phases=3 conn=wye bus1=T_bus3031_L.1.2.3.0 kV=0.208 kW=26.517 yearly=Load_Bus_3031 model=1
New Load.Load_3032 phases=3 conn=wye bus1=T_bus3032_L.1.2.3.0 kV=0.208 kW=27.876 yearly=Load_Bus_3032 model=1
New Load.Load_3033 phases=3 conn=wye bus1=T_bus3033_L.1.2.3.0 kV=0.208 kW=32.387 yearly=Load_Bus_3033 model=1
New Load.Load_3034 phases=3 conn=wye bus1=T_bus3034_L.1.2.3.0 kV=0.208 kW=28.480 yearly=Load_Bus_3034 model=1
New Load.Load_3035 phases=3 conn=wye bus1=T_bus3035_L.1.2.3.0 kV=0.208 kW=37.647 yearly=Load_Bus_3035 model=1
New Load.Load_3036 phases=3 conn=wye bus1=T_bus3036_L.1.2.3.0 kV=0.208 kW=22.728 yearly=Load_Bus_3036 model=1
New Load.Load_3037 phases=3 conn=wye bus1=T_bus3037_L.1.2.3.0 kV=0.208 kW=25.742 yearly=Load_Bus_3037 model=1
New Load.Load_3038 phases=3 conn=wye bus1=T_bus3038_L.1.2.3.0 kV=0.208 kW=24.682 yearly=Load_Bus_3038 model=1
New Load.Load_3039 phases=3 conn=wye bus1=T_bus3039_L.1.2.3.0 kV=0.208 kW=26.151 yearly=Load_Bus_3039 model=1
New Load.Load_3041 phases=2 conn=wye bus1=T_bus3041_L.1.2 kV=0.208 kW=31.852 yearly=Load_Bus_3041 model=1
New Load.Load_3042 phases=2 conn=wye bus1=T_bus3042_L.1.2 kV=0.208 kW=22.882 yearly=Load_Bus_3042 model=1
New Load.Load_3043 phases=2 conn=wye bus1=T_bus3043_L.1.2 kV=0.208 kW=19.321 yearly=Load_Bus_3043 model=1
New Load.Load_3044 phases=2 conn=wye bus1=T_bus3044_L.1.2 kV=0.208 kW=25.931 yearly=Load_Bus_3044 model=1
New Load.Load_3045 phases=2 conn=wye bus1=T_bus3045_L.1.2 kV=0.208 kW=24.021 yearly=Load_Bus_3045 model=1
New Load.Load_3047 phases=3 conn=wye bus1=T_bus3047_L.1.2.3.0 kV=0.208 kW=35.285 yearly=Load_Bus_3047 model=1
New Load.Load_3048 phases=3 conn=wye bus1=T_bus3048_L.1.2.3.0 kV=0.208 kW=11.573 yearly=Load_Bus_3048 model=1
New Load.Load_3049 phases=3 conn=wye bus1=T_bus3049_L.1.2.3.0 kV=0.208 kW=20.861 yearly=Load_Bus_3049 model=1
New Load.Load_3050 phases=3 conn=wye bus1=T_bus3050_L.1.2.3.0 kV=0.208 kW=16.900 yearly=Load_Bus_3050 model=1
New Load.Load_3051 phases=3 conn=wye bus1=T_bus3051_L.1.2.3.0 kV=0.208 kW=11.252 yearly=Load_Bus_3051 model=1
New Load.Load_3052 phases=3 conn=wye bus1=T_bus3052_L.1.2.3.0 kV=0.208 kW=24.469 yearly=Load_Bus_3052 model=1
New Load.Load_3054 phases=3 conn=wye bus1=T_bus3054_L.1.2.3.0 kV=0.208 kW=9.130 yearly=Load_Bus_3054 model=1
New Load.Load_3056 phases=2 conn=wye bus1=T_bus3056_L.1.2 kV=0.208 kW=19.849 yearly=Load_Bus_3056 model=1
New Load.Load_3057 phases=2 conn=wye bus1=T_bus3057_L.1.2 kV=0.208 kW=17.411 yearly=Load_Bus_3057 model=1
New Load.Load_3058 phases=2 conn=wye bus1=T_bus3058_L.1.2 kV=0.208 kW=16.202 yearly=Load_Bus_3058 model=1
New Load.Load_3059 phases=2 conn=wye bus1=T_bus3059_L.1.2 kV=0.208 kW=21.339 yearly=Load_Bus_3059 model=1
New Load.Load_3060 phases=2 conn=wye bus1=T_bus3060_L.1.2 kV=0.208 kW=19.693 yearly=Load_Bus_3060 model=1
New Load.Load_3061 phases=2 conn=wye bus1=T_bus3061_L.1.2 kV=0.208 kW=11.180 yearly=Load_Bus_3061 model=1
New Load.Load_3062 phases=2 conn=wye bus1=T_bus3062_L.1.2 kV=0.208 kW=16.938 yearly=Load_Bus_3062 model=1
New Load.Load_3063 phases=2 conn=wye bus1=T_bus3063_L.1.2 kV=0.208 kW=21.654 yearly=Load_Bus_3063 model=1
New Load.Load_3064 phases=2 conn=wye bus1=T_bus3064_L.1.2 kV=0.208 kW=29.585 yearly=Load_Bus_3064 model=1
New Load.Load_3065 phases=2 conn=wye bus1=T_bus3065_L.1.2 kV=0.208 kW=23.373 yearly=Load_Bus_3065 model=1
New Load.Load_3066 phases=2 conn=wye bus1=T_bus3066_L.1.2 kV=0.208 kW=12.242 yearly=Load_Bus_3066 model=1
New Load.Load_3067 phases=2 conn=wye bus1=T_bus3067_L.1.2 kV=0.208 kW=30.161 yearly=Load_Bus_3067 model=1
New Load.Load_3070 phases=3 conn=wye bus1=T_bus3070_L.1.2.3.0 kV=0.208 kW=14.690 yearly=Load_Bus_3070 model=1
New Load.Load_3071 phases=3 conn=wye bus1=T_bus3071_L.1.2.3.0 kV=0.208 kW=19.767 yearly=Load_Bus_3071 model=1
New Load.Load_3072 phases=3 conn=wye bus1=T_bus3072_L.1.2.3.0 kV=0.208 kW=18.702 yearly=Load_Bus_3072 model=1
New Load.Load_3073 phases=3 conn=wye bus1=T_bus3073_L.1.2.3.0 kV=0.208 kW=17.859 yearly=Load_Bus_3073 model=1
New Load.Load_3074 phases=3 conn=wye bus1=T_bus3074_L.1.2.3.0 kV=0.208 kW=18.954 yearly=Load_Bus_3074 model=1
New Load.Load_3077 phases=3 conn=wye bus1=T_bus3077_L.1.2.3.0 kV=0.208 kW=274.291 yearly=Load_Bus_3077 model=1
New Load.Load_3078 phases=3 conn=wye bus1=T_bus3078_L.1.2.3.0 kV=0.208 kW=12.400 yearly=Load_Bus_3078 model=1
New Load.Load_3081 phases=3 conn=wye bus1=T_bus3081_L.1.2.3.0 kV=0.208 kW=28.011 yearly=Load_Bus_3081 model=1
New Load.Load_3083 phases=2 conn=wye bus1=T_bus3083_L.1.2 kV=0.208 kW=19.378 yearly=Load_Bus_3083 model=1
New Load.Load_3084 phases=2 conn=wye bus1=T_bus3084_L.1.2 kV=0.208 kW=19.433 yearly=Load_Bus_3084 model=1
New Load.Load_3085 phases=2 conn=wye bus1=T_bus3085_L.1.2 kV=0.208 kW=28.191 yearly=Load_Bus_3085 model=1
New Load.Load_3086 phases=2 conn=wye bus1=T_bus3086_L.1.2 kV=0.208 kW=12.886 yearly=Load_Bus_3086 model=1
New Load.Load_3087 phases=2 conn=wye bus1=T_bus3087_L.1.2 kV=0.208 kW=25.893 yearly=Load_Bus_3087 model=1
New Load.Load_3088 phases=2 conn=wye bus1=T_bus3088_L.1.2 kV=0.208 kW=24.450 yearly=Load_Bus_3088 model=1
New Load.Load_3089 phases=2 conn=wye bus1=T_bus3089_L.1.2 kV=0.208 kW=20.967 yearly=Load_Bus_3089 model=1
New Load.Load_3090 phases=2 conn=wye bus1=T_bus3090_L.1.2 kV=0.208 kW=22.463 yearly=Load_Bus_3090 model=1
New Load.Load_3091 phases=2 conn=wye bus1=T_bus3091_L.1.2 kV=0.208 kW=13.577 yearly=Load_Bus_3091 model=1
New Load.Load_3093 phases=2 conn=wye bus1=T_bus3093_L.1.2 kV=0.208 kW=21.003 yearly=Load_Bus_3093 model=1
New Load.Load_3094 phases=2 conn=wye bus1=T_bus3094_L.1.2 kV=0.208 kW=17.986 yearly=Load_Bus_3094 model=1
New Load.Load_3095 phases=2 conn=wye bus1=T_bus3095_L.1.2 kV=0.208 kW=26.144 yearly=Load_Bus_3095 model=1
New Load.Load_3096 phases=2 conn=wye bus1=T_bus3096_L.1.2 kV=0.208 kW=25.015 yearly=Load_Bus_3096 model=1
New Load.Load_3097 phases=2 conn=wye bus1=T_bus3097_L.1.2 kV=0.208 kW=27.400 yearly=Load_Bus_3097 model=1
New Load.Load_3098 phases=2 conn=wye bus1=T_bus3098_L.1.2 kV=0.208 kW=39.261 yearly=Load_Bus_3098 model=1
New Load.Load_3099 phases=2 conn=wye bus1=T_bus3099_L.1.2 kV=0.208 kW=21.380 yearly=Load_Bus_3099 model=1
New Load.Load_3101 phases=2 conn=wye bus1=T_bus3101_L.1.2 kV=0.208 kW=18.535 yearly=Load_Bus_3101 model=1
New Load.Load_3102 phases=2 conn=wye bus1=T_bus3102_L.1.2 kV=0.208 kW=21.503 yearly=Load_Bus_3102 model=1
New Load.Load_3103 phases=2 conn=wye bus1=T_bus3103_L.1.2 kV=0.208 kW=30.100 yearly=Load_Bus_3103 model=1
New Load.Load_3104 phases=2 conn=wye bus1=T_bus3104_L.1.2 kV=0.208 kW=69.171 yearly=Load_Bus_3104 model=1
New Load.Load_3105 phases=2 conn=wye bus1=T_bus3105_L.1.2 kV=0.208 kW=17.564 yearly=Load_Bus_3105 model=1
New Load.Load_3106 phases=2 conn=wye bus1=T_bus3106_L.1.2 kV=0.208 kW=64.127 yearly=Load_Bus_3106 model=1
New Load.Load_3108 phases=2 conn=wye bus1=T_bus3108_L.1.2 kV=0.208 kW=14.475 yearly=Load_Bus_3108 model=1
New Load.Load_3109 phases=2 conn=wye bus1=T_bus3109_L.1.2 kV=0.208 kW=27.203 yearly=Load_Bus_3109 model=1
New Load.Load_3110 phases=2 conn=wye bus1=T_bus3110_L.1.2 kV=0.208 kW=36.456 yearly=Load_Bus_3110 model=1
New Load.Load_3111 phases=2 conn=wye bus1=T_bus3111_L.1.2 kV=0.208 kW=38.916 yearly=Load_Bus_3111 model=1
New Load.Load_3112 phases=2 conn=wye bus1=T_bus3112_L.1.2 kV=0.208 kW=36.444 yearly=Load_Bus_3112 model=1
New Load.Load_3114 phases=2 conn=wye bus1=T_bus3114_L.1.2 kV=0.208 kW=26.209 yearly=Load_Bus_3114 model=1
New Load.Load_3115 phases=2 conn=wye bus1=T_bus3115_L.1.2 kV=0.208 kW=33.084 yearly=Load_Bus_3115 model=1
New Load.Load_3116 phases=2 conn=wye bus1=T_bus3116_L.1.2 kV=0.208 kW=22.940 yearly=Load_Bus_3116 model=1
New Load.Load_3117 phases=2 conn=wye bus1=T_bus3117_L.1.2 kV=0.208 kW=15.638 yearly=Load_Bus_3117 model=1
New Load.Load_3120 phases=2 conn=wye bus1=T_bus3120_L.1.2 kV=0.208 kW=20.827 yearly=Load_Bus_3120 model=1
New Load.Load_3121 phases=2 conn=wye bus1=T_bus3121_L.1.2 kV=0.208 kW=20.303 yearly=Load_Bus_3121 model=1
New Load.Load_3122 phases=2 conn=wye bus1=T_bus3122_L.1.2 kV=0.208 kW=17.864 yearly=Load_Bus_3122 model=1
New Load.Load_3123 phases=2 conn=wye bus1=T_bus3123_L.1.2 kV=0.208 kW=24.506 yearly=Load_Bus_3123 model=1
New Load.Load_3124 phases=2 conn=wye bus1=T_bus3124_L.1.2 kV=0.208 kW=16.423 yearly=Load_Bus_3124 model=1
New Load.Load_3125 phases=2 conn=wye bus1=T_bus3125_L.1.2 kV=0.208 kW=4.301 yearly=Load_Bus_3125 model=1
New Load.Load_3126 phases=2 conn=wye bus1=T_bus3126_L.1.2 kV=0.208 kW=23.176 yearly=Load_Bus_3126 model=1
New Load.Load_3127 phases=2 conn=wye bus1=T_bus3127_L.1.2 kV=0.208 kW=30.508 yearly=Load_Bus_3127 model=1
New Load.Load_3128 phases=2 conn=wye bus1=T_bus3128_L.1.2 kV=0.208 kW=12.191 yearly=Load_Bus_3128 model=1
New Load.Load_3129 phases=2 conn=wye bus1=T_bus3129_L.1.2 kV=0.208 kW=17.736 yearly=Load_Bus_3129 model=1
New Load.Load_3130 phases=2 conn=wye bus1=T_bus3130_L.1.2 kV=0.208 kW=15.409 yearly=Load_Bus_3130 model=1
New Load.Load_3131 phases=2 conn=wye bus1=T_bus3131_L.1.2 kV=0.208 kW=27.346 yearly=Load_Bus_3131 model=1
New Load.Load_3132 phases=2 conn=wye bus1=T_bus3132_L.1.2 kV=0.208 kW=32.601 yearly=Load_Bus_3132 model=1
New Load.Load_3134 phases=2 conn=wye bus1=T_bus3134_L.1.2 kV=0.208 kW=38.308 yearly=Load_Bus_3134 model=1
New Load.Load_3135 phases=2 conn=wye bus1=T_bus3135_L.1.2 kV=0.208 kW=24.338 yearly=Load_Bus_3135 model=1
New Load.Load_3136 phases=2 conn=wye bus1=T_bus3136_L.1.2 kV=0.208 kW=42.143 yearly=Load_Bus_3136 model=1
New Load.Load_3137 phases=2 conn=wye bus1=T_bus3137_L.1.2 kV=0.208 kW=44.569 yearly=Load_Bus_3137 model=1
New Load.Load_3138 phases=2 conn=wye bus1=T_bus3138_L.1.2 kV=0.208 kW=39.737 yearly=Load_Bus_3138 model=1
New Load.Load_3141 phases=2 conn=wye bus1=T_bus3141_L.1.2 kV=0.208 kW=22.791 yearly=Load_Bus_3141 model=1
New Load.Load_3142 phases=2 conn=wye bus1=T_bus3142_L.1.2 kV=0.208 kW=20.495 yearly=Load_Bus_3142 model=1
New Load.Load_3143 phases=2 conn=wye bus1=T_bus3143_L.1.2 kV=0.208 kW=29.949 yearly=Load_Bus_3143 model=1
New Load.Load_3144 phases=2 conn=wye bus1=T_bus3144_L.1.2 kV=0.208 kW=6.320 yearly=Load_Bus_3144 model=1
New Load.Load_3145 phases=2 conn=wye bus1=T_bus3145_L.1.2 kV=0.208 kW=19.689 yearly=Load_Bus_3145 model=1
New Load.Load_3146 phases=2 conn=wye bus1=T_bus3146_L.1.2 kV=0.208 kW=16.403 yearly=Load_Bus_3146 model=1
New Load.Load_3147 phases=2 conn=wye bus1=T_bus3147_L.1.2 kV=0.208 kW=24.307 yearly=Load_Bus_3147 model=1
New Load.Load_3148 phases=2 conn=wye bus1=T_bus3148_L.1.2 kV=0.208 kW=32.137 yearly=Load_Bus_3148 model=1
New Load.Load_3149 phases=2 conn=wye bus1=T_bus3149_L.1.2 kV=0.208 kW=18.657 yearly=Load_Bus_3149 model=1
New Load.Load_3150 phases=2 conn=wye bus1=T_bus3150_L.1.2 kV=0.208 kW=11.476 yearly=Load_Bus_3150 model=1
New Load.Load_3151 phases=2 conn=wye bus1=T_bus3151_L.1.2 kV=0.208 kW=10.697 yearly=Load_Bus_3151 model=1
New Load.Load_3152 phases=2 conn=wye bus1=T_bus3152_L.1.2 kV=0.208 kW=12.130 yearly=Load_Bus_3152 model=1
New Load.Load_3153 phases=2 conn=wye bus1=T_bus3153_L.1.2 kV=0.208 kW=28.978 yearly=Load_Bus_3153 model=1
New Load.Load_3154 phases=2 conn=wye bus1=T_bus3154_L.1.2 kV=0.208 kW=15.377 yearly=Load_Bus_3154 model=1
New Load.Load_3155 phases=2 conn=wye bus1=T_bus3155_L.1.2 kV=0.208 kW=15.695 yearly=Load_Bus_3155 model=1
New Load.Load_3157 phases=2 conn=wye bus1=T_bus3157_L.1.2 kV=0.208 kW=31.223 yearly=Load_Bus_3157 model=1
New Load.Load_3158 phases=2 conn=wye bus1=T_bus3158_L.1.2 kV=0.208 kW=33.402 yearly=Load_Bus_3158 model=1
New Load.Load_3159 phases=2 conn=wye bus1=T_bus3159_L.1.2 kV=0.208 kW=30.795 yearly=Load_Bus_3159 model=1
New Load.Load_3160 phases=2 conn=wye bus1=T_bus3160_L.1.2 kV=0.208 kW=16.197 yearly=Load_Bus_3160 model=1
New Load.Load_3161 phases=2 conn=wye bus1=T_bus3161_L.1.2 kV=0.208 kW=13.444 yearly=Load_Bus_3161 model=1
New Load.Load_3162 phases=2 conn=wye bus1=T_bus3162_L.1.2 kV=0.208 kW=13.828 yearly=Load_Bus_3162 model=1
